<?xml version="1.0" encoding="UTF-8"?>
<configuration>
    <input>
        <net-file value="cross.net.xml"/>
        <route-files value="taipei.rou.xml"/>
    </input>
    <time>
        <begin value="0"/>
        <end value="3600"/>
    </time>
    <report>
        <verbose value="false"/>
        <no-step-log value="true"/>
    </report>
</configuration>
